* Design:	DFFHQNx1_ASAP7_75t_R
* Created:	"Fri Aug 17 2018"
* Vendor:	"Mentor Graphics Corporation"
* Program:	"xACT"
* Version:	"v2017.1_34.33"
* Corner Name: typical_27
* Nominal Temperature: 25C
* Circuit Temperature: 27C
* 
* Integrated TICER reduction is not enabled.
* SHORT DELAY THRESHOLD: 2e-15
* Fill Mode: NG
* PEX REDUCE CC ABSOLUTE : 1
* PEX REDUCE CC RELATIVE : 0.01
* Delta transform mode : 344834

*include "DFFHQNx1_ASAP7_75t_R.pex.netlist.pex"
*BEGIN of ".include "DFFHQNx1_ASAP7_75t_R.pex.netlist.pex"


.subckt PM_DFFHQNx1_ASAP7_75t_R%noxref_18 VSS 1
c1 1 VSS 0.00427064f
.ends

.subckt PM_DFFHQNx1_ASAP7_75t_R%noxref_19 VSS 1
c1 1 VSS 0.00416001f
.ends

.subckt PM_DFFHQNx1_ASAP7_75t_R%noxref_29 VSS 1
c1 1 VSS 0.00452737f
.ends

.subckt PM_DFFHQNx1_ASAP7_75t_R%noxref_24 VSS 1
c1 1 VSS 0.00426212f
.ends

.subckt PM_DFFHQNx1_ASAP7_75t_R%noxref_28 VSS 1
c1 1 VSS 0.00477846f
.ends

.subckt PM_DFFHQNx1_ASAP7_75t_R%noxref_26 VSS 1
c1 1 VSS 0.0415028f
.ends

.subckt PM_DFFHQNx1_ASAP7_75t_R%noxref_25 VSS 1
c1 1 VSS 0.00426485f
.ends

.subckt PM_DFFHQNx1_ASAP7_75t_R%noxref_27 VSS 1
c1 1 VSS 0.0415009f
.ends

.subckt PM_DFFHQNx1_ASAP7_75t_R%QN VSS 19 13 25 2 7 9 1 8
c1 1 VSS 0.00826277f
c2 2 VSS 0.00838008f
c3 7 VSS 0.00367384f
c4 8 VSS 0.00366397f
c5 9 VSS 0.00332205f
c6 10 VSS 0.00624757f
c7 11 VSS 0.00582331f
r1 8 2 0.154321 $w=8.1e-08 $l=1.25e-08 $layer=P_src_drn $thickness=1e-09
+ $X=1.0115 $Y=0.2025 $X2=1.0240 $Y2=0.2025
r2 25 8 0.0308642 $w=8.1e-08 $l=2.5e-09 $layer=P_src_drn $thickness=1e-09
+ $X=1.0090 $Y=0.2025 $X2=1.0115 $Y2=0.2025
r3 2 22 19.3796 $w=1.8e-08 $l=1.8e-08 $layer=V0LISD $X=1.0260 $Y=0.2025
+ $X2=1.0260 $Y2=0.2340
r4 22 23 3.14806 $w=1.3e-08 $l=1.35e-08 $layer=M1 $thickness=3.6e-08 $X=1.0260
+ $Y=0.2340 $X2=1.0395 $Y2=0.2340
r5 11 20 1.09329 $w=1.76154e-08 $l=9.8e-09 $layer=M1 $thickness=3.6e-08
+ $X=1.0530 $Y=0.2340 $X2=1.0530 $Y2=0.2242
r6 11 23 1.96775 $w=1.63333e-08 $l=1.35e-08 $layer=M1 $thickness=3.6e-08
+ $X=1.0530 $Y=0.2340 $X2=1.0395 $Y2=0.2340
r7 19 20 0.291487 $w=1.3e-08 $l=1.2e-09 $layer=M1 $thickness=3.6e-08 $X=1.0530
+ $Y=0.2230 $X2=1.0530 $Y2=0.2242
r8 19 18 6.58761 $w=1.3e-08 $l=2.83e-08 $layer=M1 $thickness=3.6e-08 $X=1.0530
+ $Y=0.2230 $X2=1.0530 $Y2=0.1947
r9 17 18 15.4488 $w=1.3e-08 $l=6.62e-08 $layer=M1 $thickness=3.6e-08 $X=1.0530
+ $Y=0.1285 $X2=1.0530 $Y2=0.1947
r10 9 16 6.16517 $w=1.44286e-08 $l=3.15e-08 $layer=M1 $thickness=3.6e-08
+ $X=1.0530 $Y=0.0675 $X2=1.0530 $Y2=0.0360
r11 9 17 14.2246 $w=1.3e-08 $l=6.1e-08 $layer=M1 $thickness=3.6e-08 $X=1.0530
+ $Y=0.0675 $X2=1.0530 $Y2=0.1285
r12 15 16 1.96775 $w=1.63333e-08 $l=1.35e-08 $layer=M1 $thickness=3.6e-08
+ $X=1.0395 $Y=0.0360 $X2=1.0530 $Y2=0.0360
r13 14 15 3.14806 $w=1.3e-08 $l=1.35e-08 $layer=M1 $thickness=3.6e-08 $X=1.0260
+ $Y=0.0360 $X2=1.0395 $Y2=0.0360
r14 10 14 2.68168 $w=1.3e-08 $l=1.15e-08 $layer=M1 $thickness=3.6e-08 $X=1.0145
+ $Y=0.0360 $X2=1.0260 $Y2=0.0360
r15 1 14 19.3796 $w=1.8e-08 $l=1.8e-08 $layer=V0LISD $X=1.0260 $Y=0.0675
+ $X2=1.0260 $Y2=0.0360
r16 7 1 0.154321 $w=8.1e-08 $l=1.25e-08 $layer=N_src_drn $thickness=1e-09
+ $X=1.0115 $Y=0.0675 $X2=1.0240 $Y2=0.0675
r17 13 7 0.0308642 $w=8.1e-08 $l=2.5e-09 $layer=N_src_drn $thickness=1e-09
+ $X=1.0090 $Y=0.0675 $X2=1.0115 $Y2=0.0675
.ends

.subckt PM_DFFHQNx1_ASAP7_75t_R%PD3 VSS 2 4 1
c1 1 VSS 0.000972222f
r1 4 3 0.462963 $w=2.7e-08 $l=1.25e-08 $layer=N_src_drn $thickness=1e-09
+ $X=0.5030 $Y=0.0405 $X2=0.4905 $Y2=0.0405
r2 2 1 0.166667 $w=2.7e-08 $l=4.5e-09 $layer=N_src_drn $thickness=1e-09
+ $X=0.4690 $Y=0.0405 $X2=0.4735 $Y2=0.0405
r3 1 3 0.62963 $w=2.7e-08 $l=1.7e-08 $layer=N_src_drn $thickness=1e-09
+ $X=0.4735 $Y=0.0405 $X2=0.4905 $Y2=0.0405
.ends

.subckt PM_DFFHQNx1_ASAP7_75t_R%PD4 VSS 2 4 1
c1 1 VSS 0.000945784f
r1 4 3 0.462963 $w=2.7e-08 $l=1.25e-08 $layer=P_src_drn $thickness=1e-09
+ $X=0.7730 $Y=0.2295 $X2=0.7605 $Y2=0.2295
r2 2 1 0.166667 $w=2.7e-08 $l=4.5e-09 $layer=P_src_drn $thickness=1e-09
+ $X=0.7390 $Y=0.2295 $X2=0.7435 $Y2=0.2295
r3 1 3 0.62963 $w=2.7e-08 $l=1.7e-08 $layer=P_src_drn $thickness=1e-09
+ $X=0.7435 $Y=0.2295 $X2=0.7605 $Y2=0.2295
.ends

.subckt PM_DFFHQNx1_ASAP7_75t_R%PU1 VSS 2 4 1
c1 1 VSS 0.0009845f
r1 4 3 0.0555556 $w=8.1e-08 $l=4.5e-09 $layer=P_src_drn $thickness=1e-09
+ $X=0.3410 $Y=0.2025 $X2=0.3365 $Y2=0.2025
r2 2 1 0.154321 $w=8.1e-08 $l=1.25e-08 $layer=P_src_drn $thickness=1e-09
+ $X=0.3070 $Y=0.2025 $X2=0.3195 $Y2=0.2025
r3 1 3 0.209877 $w=8.1e-08 $l=1.7e-08 $layer=P_src_drn $thickness=1e-09
+ $X=0.3195 $Y=0.2025 $X2=0.3365 $Y2=0.2025
.ends

.subckt PM_DFFHQNx1_ASAP7_75t_R%PD2 VSS 7 12 4 5 1
c1 1 VSS 0.00730038f
c2 4 VSS 0.00188731f
c3 5 VSS 0.00233441f
r1 12 11 0.0925926 $w=2.7e-08 $l=2.5e-09 $layer=P_src_drn $thickness=1e-09
+ $X=0.5030 $Y=0.2295 $X2=0.5005 $Y2=0.2295
r2 5 11 0.462963 $w=2.7e-08 $l=1.25e-08 $layer=P_src_drn $thickness=1e-09
+ $X=0.4880 $Y=0.2295 $X2=0.5005 $Y2=0.2295
r3 9 5 11.9937 $w=2.32e-08 $l=2.55e-08 $layer=LISD $thickness=2.7e-08 $X=0.4605
+ $Y=0.2295 $X2=0.4860 $Y2=0.2295
r4 8 9 7.05511 $w=2.32e-08 $l=1.5e-08 $layer=LISD $thickness=2.7e-08 $X=0.4455
+ $Y=0.2295 $X2=0.4605 $Y2=0.2295
r5 1 8 6.3496 $w=2.32e-08 $l=1.35e-08 $layer=LISD $thickness=2.7e-08 $X=0.4320
+ $Y=0.2295 $X2=0.4455 $Y2=0.2295
r6 4 1 0.462963 $w=2.7e-08 $l=1.25e-08 $layer=P_src_drn $thickness=1e-09
+ $X=0.4175 $Y=0.2295 $X2=0.4300 $Y2=0.2295
r7 7 4 0.0925926 $w=2.7e-08 $l=2.5e-09 $layer=P_src_drn $thickness=1e-09
+ $X=0.4150 $Y=0.2295 $X2=0.4175 $Y2=0.2295
.ends

.subckt PM_DFFHQNx1_ASAP7_75t_R%noxref_20 VSS 1
c1 1 VSS 0.00485299f
.ends

.subckt PM_DFFHQNx1_ASAP7_75t_R%noxref_22 VSS 1
c1 1 VSS 0.041561f
.ends

.subckt PM_DFFHQNx1_ASAP7_75t_R%noxref_21 VSS 1
c1 1 VSS 0.00487019f
.ends

.subckt PM_DFFHQNx1_ASAP7_75t_R%noxref_23 VSS 1
c1 1 VSS 0.0415701f
.ends

.subckt PM_DFFHQNx1_ASAP7_75t_R%SS VSS 9 31 41 12 10 11 15 4 3 14 1 16 13 17
c1 1 VSS 0.00102999f
c2 3 VSS 0.00624336f
c3 4 VSS 0.00663106f
c4 9 VSS 0.0384397f
c5 10 VSS 0.00326083f
c6 11 VSS 0.00324511f
c7 12 VSS 0.00185534f
c8 13 VSS 0.0135942f
c9 14 VSS 0.00902919f
c10 15 VSS 0.00619638f
c11 16 VSS 0.00323914f
c12 17 VSS 0.00312957f
c13 18 VSS 0.00316281f
r1 11 4 0.462963 $w=2.7e-08 $l=1.25e-08 $layer=P_src_drn $thickness=1e-09
+ $X=0.8495 $Y=0.2295 $X2=0.8620 $Y2=0.2295
r2 41 11 0.0925926 $w=2.7e-08 $l=2.5e-09 $layer=P_src_drn $thickness=1e-09
+ $X=0.8470 $Y=0.2295 $X2=0.8495 $Y2=0.2295
r3 4 38 19.3796 $w=1.8e-08 $l=1.8e-08 $layer=V0LISD $X=0.8640 $Y=0.2295
+ $X2=0.8640 $Y2=0.2340
r4 38 39 5.24677 $w=1.3e-08 $l=2.25e-08 $layer=M1 $thickness=3.6e-08 $X=0.8640
+ $Y=0.2340 $X2=0.8865 $Y2=0.2340
r5 14 18 4.64701 $w=1.46667e-08 $l=2.7e-08 $layer=M1 $thickness=3.6e-08
+ $X=0.9180 $Y=0.2340 $X2=0.9450 $Y2=0.2340
r6 14 39 7.34548 $w=1.3e-08 $l=3.15e-08 $layer=M1 $thickness=3.6e-08 $X=0.9180
+ $Y=0.2340 $X2=0.8865 $Y2=0.2340
r7 18 36 0.56619 $w=2.22842e-08 $l=9.5e-09 $layer=M1 $thickness=3.6e-08
+ $X=0.9450 $Y=0.2340 $X2=0.9450 $Y2=0.2245
r8 35 36 6.29612 $w=1.3e-08 $l=2.7e-08 $layer=M1 $thickness=3.6e-08 $X=0.9450
+ $Y=0.1975 $X2=0.9450 $Y2=0.2245
r9 34 35 6.64591 $w=1.3e-08 $l=2.85e-08 $layer=M1 $thickness=3.6e-08 $X=0.9450
+ $Y=0.1690 $X2=0.9450 $Y2=0.1975
r10 33 34 6.29612 $w=1.3e-08 $l=2.7e-08 $layer=M1 $thickness=3.6e-08 $X=0.9450
+ $Y=0.1420 $X2=0.9450 $Y2=0.1690
r11 32 33 8.97781 $w=1.3e-08 $l=3.85e-08 $layer=M1 $thickness=3.6e-08 $X=0.9450
+ $Y=0.1035 $X2=0.9450 $Y2=0.1420
r12 15 17 5.69636 $w=1.58e-08 $l=3.15e-08 $layer=M1 $thickness=3.6e-08
+ $X=0.9450 $Y=0.0675 $X2=0.9450 $Y2=0.0360
r13 15 32 8.39483 $w=1.3e-08 $l=3.6e-08 $layer=M1 $thickness=3.6e-08 $X=0.9450
+ $Y=0.0675 $X2=0.9450 $Y2=0.1035
r14 10 3 0.462963 $w=2.7e-08 $l=1.25e-08 $layer=N_src_drn $thickness=1e-09
+ $X=0.8495 $Y=0.0405 $X2=0.8620 $Y2=0.0405
r15 31 10 0.0925926 $w=2.7e-08 $l=2.5e-09 $layer=N_src_drn $thickness=1e-09
+ $X=0.8470 $Y=0.0405 $X2=0.8495 $Y2=0.0405
r16 17 29 4.64701 $w=1.46667e-08 $l=2.7e-08 $layer=M1 $thickness=3.6e-08
+ $X=0.9450 $Y=0.0360 $X2=0.9180 $Y2=0.0360
r17 3 27 19.3796 $w=1.8e-08 $l=1.8e-08 $layer=V0LISD $X=0.8640 $Y=0.0405
+ $X2=0.8640 $Y2=0.0360
r18 28 29 6.29612 $w=1.3e-08 $l=2.7e-08 $layer=M1 $thickness=3.6e-08 $X=0.8910
+ $Y=0.0360 $X2=0.9180 $Y2=0.0360
r19 27 28 6.29612 $w=1.3e-08 $l=2.7e-08 $layer=M1 $thickness=3.6e-08 $X=0.8640
+ $Y=0.0360 $X2=0.8910 $Y2=0.0360
r20 26 27 6.29612 $w=1.3e-08 $l=2.7e-08 $layer=M1 $thickness=3.6e-08 $X=0.8370
+ $Y=0.0360 $X2=0.8640 $Y2=0.0360
r21 13 16 4.64701 $w=1.46667e-08 $l=2.7e-08 $layer=M1 $thickness=3.6e-08
+ $X=0.8100 $Y=0.0360 $X2=0.7830 $Y2=0.0360
r22 13 26 6.29612 $w=1.3e-08 $l=2.7e-08 $layer=M1 $thickness=3.6e-08 $X=0.8100
+ $Y=0.0360 $X2=0.8370 $Y2=0.0360
r23 12 23 8.04505 $w=1.3e-08 $l=3.45e-08 $layer=M1 $thickness=3.6e-08 $X=0.7830
+ $Y=0.0705 $X2=0.7830 $Y2=0.1050
r24 12 16 6.39593 $w=1.55565e-08 $l=3.45e-08 $layer=M1 $thickness=3.6e-08
+ $X=0.7830 $Y=0.0705 $X2=0.7830 $Y2=0.0360
r25 1 20 2.36633 $w=2.3e-08 $l=0 $layer=LIG $thickness=4.8e-08 $X=0.7830
+ $Y=0.1055 $X2=0.7830 $Y2=0.1055
r26 1 23 19.3796 $w=1.8e-08 $l=1.8e-08 $layer=V0LIG $X=0.7830 $Y=0.1055
+ $X2=0.7830 $Y2=0.1050
r27 9 20 0.314665 $w=2.27e-07 $l=2.95e-08 $layer=Gate_1 $thickness=5.6e-08
+ $X=0.7830 $Y=0.1350 $X2=0.7830 $Y2=0.1055
.ends

.subckt PM_DFFHQNx1_ASAP7_75t_R%PD5 VSS 7 12 4 1 5
c1 1 VSS 0.00741411f
c2 4 VSS 0.00187966f
c3 5 VSS 0.00237599f
r1 12 11 0.0925926 $w=2.7e-08 $l=2.5e-09 $layer=N_src_drn $thickness=1e-09
+ $X=0.7730 $Y=0.0405 $X2=0.7705 $Y2=0.0405
r2 5 11 0.462963 $w=2.7e-08 $l=1.25e-08 $layer=N_src_drn $thickness=1e-09
+ $X=0.7580 $Y=0.0405 $X2=0.7705 $Y2=0.0405
r3 9 5 6.3496 $w=2.32e-08 $l=1.35e-08 $layer=LISD $thickness=2.7e-08 $X=0.7425
+ $Y=0.0405 $X2=0.7560 $Y2=0.0405
r4 8 9 7.05511 $w=2.32e-08 $l=1.5e-08 $layer=LISD $thickness=2.7e-08 $X=0.7275
+ $Y=0.0405 $X2=0.7425 $Y2=0.0405
r5 1 8 11.9937 $w=2.32e-08 $l=2.55e-08 $layer=LISD $thickness=2.7e-08 $X=0.7020
+ $Y=0.0405 $X2=0.7275 $Y2=0.0405
r6 4 1 0.462963 $w=2.7e-08 $l=1.25e-08 $layer=N_src_drn $thickness=1e-09
+ $X=0.6875 $Y=0.0405 $X2=0.7000 $Y2=0.0405
r7 7 4 0.0925926 $w=2.7e-08 $l=2.5e-09 $layer=N_src_drn $thickness=1e-09
+ $X=0.6850 $Y=0.0405 $X2=0.6875 $Y2=0.0405
.ends

.subckt PM_DFFHQNx1_ASAP7_75t_R%CLK VSS 10 3 8 5 1 6 7 4
c1 1 VSS 0.00247155f
c2 3 VSS 0.0596776f
c3 4 VSS 0.000945964f
c4 5 VSS 0.00399877f
c5 6 VSS 0.0038827f
c6 7 VSS 0.00219792f
c7 8 VSS 0.00206941f
r1 6 18 3.22357 $w=2.26279e-08 $l=3.05e-08 $layer=M1 $thickness=3.6e-08
+ $X=0.1080 $Y=0.2125 $X2=0.1080 $Y2=0.1820
r2 5 16 3.22357 $w=2.26279e-08 $l=3.05e-08 $layer=M1 $thickness=3.6e-08
+ $X=0.1080 $Y=0.0575 $X2=0.1080 $Y2=0.0880
r3 17 18 0.502848 $w=3.43333e-08 $l=1.35e-08 $layer=M1 $thickness=3.6e-08
+ $X=0.0945 $Y=0.1820 $X2=0.1080 $Y2=0.1820
r4 8 14 0.54189 $w=3.37e-08 $l=1.9e-08 $layer=M1 $thickness=3.6e-08 $X=0.0810
+ $Y=0.1820 $X2=0.0810 $Y2=0.1630
r5 8 17 0.502848 $w=3.43333e-08 $l=1.35e-08 $layer=M1 $thickness=3.6e-08
+ $X=0.0810 $Y=0.1820 $X2=0.0945 $Y2=0.1820
r6 15 16 0.502848 $w=3.43333e-08 $l=1.35e-08 $layer=M1 $thickness=3.6e-08
+ $X=0.0945 $Y=0.0880 $X2=0.1080 $Y2=0.0880
r7 7 15 0.502848 $w=3.43333e-08 $l=1.35e-08 $layer=M1 $thickness=3.6e-08
+ $X=0.0810 $Y=0.0880 $X2=0.0945 $Y2=0.0880
r8 13 14 2.3319 $w=1.3e-08 $l=1e-08 $layer=M1 $thickness=3.6e-08 $X=0.0810
+ $Y=0.1530 $X2=0.0810 $Y2=0.1630
r9 12 13 4.19742 $w=1.3e-08 $l=1.8e-08 $layer=M1 $thickness=3.6e-08 $X=0.0810
+ $Y=0.1350 $X2=0.0810 $Y2=0.1530
r10 11 12 2.85657 $w=1.3e-08 $l=1.23e-08 $layer=M1 $thickness=3.6e-08 $X=0.0810
+ $Y=0.1227 $X2=0.0810 $Y2=0.1350
r11 10 11 0.874462 $w=1.3e-08 $l=3.7e-09 $layer=M1 $thickness=3.6e-08 $X=0.0810
+ $Y=0.1190 $X2=0.0810 $Y2=0.1227
r12 10 4 1.57403 $w=1.3e-08 $l=6.8e-09 $layer=M1 $thickness=3.6e-08 $X=0.0810
+ $Y=0.1190 $X2=0.0810 $Y2=0.1122
r13 4 7 1.76614 $w=2.65738e-08 $l=2.42e-08 $layer=M1 $thickness=3.6e-08
+ $X=0.0810 $Y=0.1122 $X2=0.0810 $Y2=0.0880
r14 3 1 6.81262 $w=1.1611e-07 $l=0 $layer=LIG $thickness=5.18095e-08 $X=0.0810
+ $Y=0.1350 $X2=0.0810 $Y2=0.1350
r15 1 12 19.3796 $w=1.8e-08 $l=1.8e-08 $layer=V0LIG $X=0.0810 $Y=0.1350
+ $X2=0.0810 $Y2=0.1350
.ends

.subckt PM_DFFHQNx1_ASAP7_75t_R%MS VSS 10 41 44 48 50 13 17 18 14 3 15 12 1 11
+ 4 16
c1 1 VSS 0.00215722f
c2 3 VSS 0.00567637f
c3 4 VSS 0.0093574f
c4 10 VSS 0.0375163f
c5 11 VSS 0.00306316f
c6 12 VSS 0.00287648f
c7 13 VSS 0.00244325f
c8 14 VSS 0.00192209f
c9 15 VSS 0.00401872f
c10 16 VSS 0.00194786f
c11 17 VSS 0.0012613f
c12 18 VSS 0.000426788f
c13 19 VSS 0.00278384f
r1 50 49 0.0925926 $w=2.7e-08 $l=2.5e-09 $layer=P_src_drn $thickness=1e-09
+ $X=0.6650 $Y=0.2295 $X2=0.6625 $Y2=0.2295
r2 13 49 0.462963 $w=2.7e-08 $l=1.25e-08 $layer=P_src_drn $thickness=1e-09
+ $X=0.6500 $Y=0.2295 $X2=0.6625 $Y2=0.2295
r3 12 4 0.462963 $w=2.7e-08 $l=1.25e-08 $layer=P_src_drn $thickness=1e-09
+ $X=0.5795 $Y=0.2295 $X2=0.5920 $Y2=0.2295
r4 48 12 0.0925926 $w=2.7e-08 $l=2.5e-09 $layer=P_src_drn $thickness=1e-09
+ $X=0.5770 $Y=0.2295 $X2=0.5795 $Y2=0.2295
r5 45 13 12.6992 $w=2.32e-08 $l=2.7e-08 $layer=LISD $thickness=2.7e-08
+ $X=0.6210 $Y=0.2295 $X2=0.6480 $Y2=0.2295
r6 4 45 12.6992 $w=2.32e-08 $l=2.7e-08 $layer=LISD $thickness=2.7e-08 $X=0.5940
+ $Y=0.2295 $X2=0.6210 $Y2=0.2295
r7 4 15 19.3796 $w=1.8e-08 $l=1.8e-08 $layer=V0LISD $X=0.5940 $Y=0.2295
+ $X2=0.5940 $Y2=0.2340
r8 15 19 5.06479 $w=1.46038e-08 $l=2.70046e-08 $layer=M1 $thickness=3.6e-08
+ $X=0.5940 $Y=0.2340 $X2=0.6210 $Y2=0.2335
r9 44 43 0.0925926 $w=2.7e-08 $l=2.5e-09 $layer=N_src_drn $thickness=1e-09
+ $X=0.6110 $Y=0.0405 $X2=0.6085 $Y2=0.0405
r10 42 43 0.166667 $w=2.7e-08 $l=4.5e-09 $layer=N_src_drn $thickness=1e-09
+ $X=0.6040 $Y=0.0405 $X2=0.6085 $Y2=0.0405
r11 3 42 0.444445 $w=2.7e-08 $l=1.2e-08 $layer=N_src_drn $thickness=1e-09
+ $X=0.5920 $Y=0.0405 $X2=0.6040 $Y2=0.0405
r12 11 3 0.462963 $w=2.7e-08 $l=1.25e-08 $layer=N_src_drn $thickness=1e-09
+ $X=0.5795 $Y=0.0405 $X2=0.5920 $Y2=0.0405
r13 41 11 0.0925926 $w=2.7e-08 $l=2.5e-09 $layer=N_src_drn $thickness=1e-09
+ $X=0.5770 $Y=0.0405 $X2=0.5795 $Y2=0.0405
r14 19 36 0.983973 $w=1.77222e-08 $l=9e-09 $layer=M1 $thickness=3.6e-08
+ $X=0.6210 $Y=0.2335 $X2=0.6210 $Y2=0.2245
r15 3 16 19.3796 $w=1.8e-08 $l=1.8e-08 $layer=V0LISD $X=0.5940 $Y=0.0405
+ $X2=0.5940 $Y2=0.0540
r16 35 36 2.56509 $w=1.3e-08 $l=1.1e-08 $layer=M1 $thickness=3.6e-08 $X=0.6210
+ $Y=0.2135 $X2=0.6210 $Y2=0.2245
r17 34 35 6.64591 $w=1.3e-08 $l=2.85e-08 $layer=M1 $thickness=3.6e-08 $X=0.6210
+ $Y=0.1850 $X2=0.6210 $Y2=0.2135
r18 33 34 4.43061 $w=1.3e-08 $l=1.9e-08 $layer=M1 $thickness=3.6e-08 $X=0.6210
+ $Y=0.1660 $X2=0.6210 $Y2=0.1850
r19 32 33 3.14806 $w=1.3e-08 $l=1.35e-08 $layer=M1 $thickness=3.6e-08 $X=0.6210
+ $Y=0.1525 $X2=0.6210 $Y2=0.1660
r20 31 32 5.01358 $w=1.3e-08 $l=2.15e-08 $layer=M1 $thickness=3.6e-08 $X=0.6210
+ $Y=0.1310 $X2=0.6210 $Y2=0.1525
r21 30 31 4.5472 $w=1.3e-08 $l=1.95e-08 $layer=M1 $thickness=3.6e-08 $X=0.6210
+ $Y=0.1115 $X2=0.6210 $Y2=0.1310
r22 17 28 1.15159 $w=1.75e-08 $l=1e-08 $layer=M1 $thickness=3.6e-08 $X=0.6210
+ $Y=0.1000 $X2=0.6210 $Y2=0.0900
r23 17 30 2.68168 $w=1.3e-08 $l=1.15e-08 $layer=M1 $thickness=3.6e-08 $X=0.6210
+ $Y=0.1000 $X2=0.6210 $Y2=0.1115
r24 16 29 4.19742 $w=1.3e-08 $l=1.8e-08 $layer=M1 $thickness=3.6e-08 $X=0.5940
+ $Y=0.0540 $X2=0.5940 $Y2=0.0720
r25 27 28 1.96775 $w=1.63333e-08 $l=1.35e-08 $layer=M1 $thickness=3.6e-08
+ $X=0.6075 $Y=0.0900 $X2=0.6210 $Y2=0.0900
r26 18 26 1.96775 $w=1.63333e-08 $l=1.35e-08 $layer=M1 $thickness=3.6e-08
+ $X=0.5940 $Y=0.0900 $X2=0.5805 $Y2=0.0900
r27 18 27 1.96775 $w=1.63333e-08 $l=1.35e-08 $layer=M1 $thickness=3.6e-08
+ $X=0.5940 $Y=0.0900 $X2=0.6075 $Y2=0.0900
r28 18 29 3.01711 $w=1.55e-08 $l=1.8e-08 $layer=M1 $thickness=3.6e-08 $X=0.5940
+ $Y=0.0900 $X2=0.5940 $Y2=0.0720
r29 25 26 7.34548 $w=1.3e-08 $l=3.15e-08 $layer=M1 $thickness=3.6e-08 $X=0.5490
+ $Y=0.0900 $X2=0.5805 $Y2=0.0900
r30 24 25 8.39483 $w=1.3e-08 $l=3.6e-08 $layer=M1 $thickness=3.6e-08 $X=0.5130
+ $Y=0.0900 $X2=0.5490 $Y2=0.0900
r31 14 24 3.03147 $w=1.3e-08 $l=1.3e-08 $layer=M1 $thickness=3.6e-08 $X=0.5000
+ $Y=0.0900 $X2=0.5130 $Y2=0.0900
r32 1 21 2.6116 $w=2.2e-08 $l=0 $layer=LIG $thickness=4.8e-08 $X=0.5130
+ $Y=0.0900 $X2=0.5130 $Y2=0.0900
r33 1 24 19.3796 $w=1.8e-08 $l=1.8e-08 $layer=V0LIG $X=0.5130 $Y=0.0900
+ $X2=0.5130 $Y2=0.0900
r34 10 21 0.314665 $w=2.27e-07 $l=4.5e-08 $layer=Gate_1 $thickness=5.6e-08
+ $X=0.5130 $Y=0.1350 $X2=0.5130 $Y2=0.0900
.ends

.subckt PM_DFFHQNx1_ASAP7_75t_R%SH VSS 11 12 65 68 71 74 28 6 18 14 13 23 25 16
+ 15 17 5 2 22 27 26 20 21 1 24 19
c1 1 VSS 0.000775166f
c2 2 VSS 0.00443737f
c3 5 VSS 0.00500635f
c4 6 VSS 0.0049296f
c5 11 VSS 0.0374582f
c6 12 VSS 0.0801799f
c7 13 VSS 0.00375186f
c8 14 VSS 0.00396971f
c9 15 VSS 0.00862183f
c10 16 VSS 0.00154718f
c11 17 VSS 0.00155981f
c12 18 VSS 0.00220354f
c13 19 VSS 0.000605024f
c14 20 VSS 0.000493736f
c15 21 VSS 0.00100584f
c16 22 VSS 0.00272554f
c17 23 VSS 0.00589929f
c18 24 VSS 0.00230613f
c19 25 VSS 0.000109755f
c20 26 VSS 0.000359629f
c21 27 VSS 0.000317399f
c22 28 VSS 0.00768646f
r1 74 73 0.0925926 $w=2.7e-08 $l=2.5e-09 $layer=N_src_drn $thickness=1e-09
+ $X=0.6650 $Y=0.0405 $X2=0.6625 $Y2=0.0405
r2 5 73 0.462963 $w=2.7e-08 $l=1.25e-08 $layer=N_src_drn $thickness=1e-09
+ $X=0.6500 $Y=0.0405 $X2=0.6625 $Y2=0.0405
r3 70 5 0.444445 $w=2.7e-08 $l=1.2e-08 $layer=N_src_drn $thickness=1e-09
+ $X=0.6380 $Y=0.0405 $X2=0.6500 $Y2=0.0405
r4 13 70 0.166667 $w=2.7e-08 $l=4.5e-09 $layer=N_src_drn $thickness=1e-09
+ $X=0.6335 $Y=0.0405 $X2=0.6380 $Y2=0.0405
r5 71 13 0.0925926 $w=2.7e-08 $l=2.5e-09 $layer=N_src_drn $thickness=1e-09
+ $X=0.6310 $Y=0.0405 $X2=0.6335 $Y2=0.0405
r6 68 67 0.0925926 $w=2.7e-08 $l=2.5e-09 $layer=P_src_drn $thickness=1e-09
+ $X=0.7190 $Y=0.2295 $X2=0.7165 $Y2=0.2295
r7 66 67 0.166667 $w=2.7e-08 $l=4.5e-09 $layer=P_src_drn $thickness=1e-09
+ $X=0.7120 $Y=0.2295 $X2=0.7165 $Y2=0.2295
r8 6 66 0.444445 $w=2.7e-08 $l=1.2e-08 $layer=P_src_drn $thickness=1e-09
+ $X=0.7000 $Y=0.2295 $X2=0.7120 $Y2=0.2295
r9 14 6 0.462963 $w=2.7e-08 $l=1.25e-08 $layer=P_src_drn $thickness=1e-09
+ $X=0.6875 $Y=0.2295 $X2=0.7000 $Y2=0.2295
r10 65 14 0.0925926 $w=2.7e-08 $l=2.5e-09 $layer=P_src_drn $thickness=1e-09
+ $X=0.6850 $Y=0.2295 $X2=0.6875 $Y2=0.2295
r11 5 57 19.3796 $w=1.8e-08 $l=1.8e-08 $layer=V0LISD $X=0.6480 $Y=0.0405
+ $X2=0.6480 $Y2=0.0360
r12 2 52 19.3796 $w=1.8e-08 $l=1.8e-08 $layer=V0LIG $X=0.9990 $Y=0.1350
+ $X2=0.9990 $Y2=0.1440
r13 12 2 2.92627 $w=1.245e-07 $l=0 $layer=LIG $thickness=5.2e-08 $X=0.9990
+ $Y=0.1350 $X2=0.9990 $Y2=0.1350
r14 6 50 19.3796 $w=1.8e-08 $l=1.8e-08 $layer=V0LISD $X=0.7020 $Y=0.2295
+ $X2=0.7020 $Y2=0.2330
r15 57 58 3.14806 $w=1.3e-08 $l=1.35e-08 $layer=M1 $thickness=3.6e-08 $X=0.6480
+ $Y=0.0360 $X2=0.6615 $Y2=0.0360
r16 55 58 3.14806 $w=1.3e-08 $l=1.35e-08 $layer=M1 $thickness=3.6e-08 $X=0.6750
+ $Y=0.0360 $X2=0.6615 $Y2=0.0360
r17 54 55 2.56509 $w=1.3e-08 $l=1.1e-08 $layer=M1 $thickness=3.6e-08 $X=0.6860
+ $Y=0.0360 $X2=0.6750 $Y2=0.0360
r18 15 24 4.18063 $w=1.48e-08 $l=2.5e-08 $layer=M1 $thickness=3.6e-08 $X=0.7040
+ $Y=0.0360 $X2=0.7290 $Y2=0.0360
r19 15 54 4.19742 $w=1.3e-08 $l=1.8e-08 $layer=M1 $thickness=3.6e-08 $X=0.7040
+ $Y=0.0360 $X2=0.6860 $Y2=0.0360
r20 22 52 8.39483 $w=1.3e-08 $l=3.6e-08 $layer=M1 $thickness=3.6e-08 $X=0.9990
+ $Y=0.1080 $X2=0.9990 $Y2=0.1440
r21 50 51 3.14806 $w=1.3e-08 $l=1.35e-08 $layer=M1 $thickness=3.6e-08 $X=0.7020
+ $Y=0.2330 $X2=0.7155 $Y2=0.2330
r22 23 51 1.96775 $w=1.63333e-08 $l=1.35e-08 $layer=M1 $thickness=3.6e-08
+ $X=0.7290 $Y=0.2330 $X2=0.7155 $Y2=0.2330
r23 24 43 4.64701 $w=1.62667e-08 $l=2.7e-08 $layer=M1 $thickness=3.6e-08
+ $X=0.7290 $Y=0.0360 $X2=0.7290 $Y2=0.0630
r24 47 52 19.5347 $w=1.8e-08 $l=1.8e-08 $layer=V1 $X=0.9990 $Y=0.1530
+ $X2=0.9990 $Y2=0.1440
r25 46 47 12.5922 $w=1.3e-08 $l=5.4e-08 $layer=M2 $thickness=3.6e-08 $X=0.9450
+ $Y=0.1530 $X2=0.9990 $Y2=0.1530
r26 45 46 12.5922 $w=1.3e-08 $l=5.4e-08 $layer=M2 $thickness=3.6e-08 $X=0.8910
+ $Y=0.1530 $X2=0.9450 $Y2=0.1530
r27 28 45 2.68168 $w=1.3e-08 $l=1.15e-08 $layer=M2 $thickness=3.6e-08 $X=0.8795
+ $Y=0.1530 $X2=0.8910 $Y2=0.1530
r28 44 45 39.0693 $w=9e-09 $l=1.8e-08 $layer=V1 $X=0.8910 $Y=0.1485 $X2=0.8910
+ $Y2=0.1530
r29 21 44 4.19742 $w=1.3e-08 $l=1.8e-08 $layer=M1 $thickness=3.6e-08 $X=0.8910
+ $Y=0.1305 $X2=0.8910 $Y2=0.1485
r30 17 38 6.38362 $w=1.33509e-08 $l=2.85e-08 $layer=M1 $thickness=3.6e-08
+ $X=0.7290 $Y=0.1975 $X2=0.7290 $Y2=0.1690
r31 17 23 7.09793 $w=1.42676e-08 $l=3.55e-08 $layer=M1 $thickness=3.6e-08
+ $X=0.7290 $Y=0.1975 $X2=0.7290 $Y2=0.2330
r32 42 43 6.29612 $w=1.3e-08 $l=2.7e-08 $layer=M1 $thickness=3.6e-08 $X=0.7290
+ $Y=0.0900 $X2=0.7290 $Y2=0.0630
r33 41 42 2.3319 $w=1.3e-08 $l=1e-08 $layer=M1 $thickness=3.6e-08 $X=0.7290
+ $Y=0.1000 $X2=0.7290 $Y2=0.0900
r34 40 41 2.3319 $w=1.3e-08 $l=1e-08 $layer=M1 $thickness=3.6e-08 $X=0.7290
+ $Y=0.1100 $X2=0.7290 $Y2=0.1000
r35 16 25 4.67854 $w=1.44583e-08 $l=2.4e-08 $layer=M1 $thickness=3.6e-08
+ $X=0.7290 $Y=0.1360 $X2=0.7290 $Y2=0.1600
r36 16 40 6.06293 $w=1.3e-08 $l=2.6e-08 $layer=M1 $thickness=3.6e-08 $X=0.7290
+ $Y=0.1360 $X2=0.7290 $Y2=0.1100
r37 27 39 0.9184 $w=1.8e-08 $l=9e-09 $layer=M1 $thickness=3.6e-08 $X=0.8910
+ $Y=0.1575 $X2=0.8910 $Y2=0.1665
r38 27 44 1.50855 $w=1.55e-08 $l=9e-09 $layer=M1 $thickness=3.6e-08 $X=0.8910
+ $Y=0.1575 $X2=0.8910 $Y2=0.1485
r39 27 45 39.0693 $w=9e-09 $l=1.8e-08 $layer=V1 $X=0.8910 $Y=0.1575 $X2=0.8910
+ $Y2=0.1530
r40 25 38 0.9184 $w=1.8e-08 $l=9e-09 $layer=M1 $thickness=3.6e-08 $X=0.7290
+ $Y=0.1600 $X2=0.7290 $Y2=0.1690
r41 37 39 4.19024 $w=1.156e-08 $l=2.54018e-08 $layer=M1 $thickness=3.6e-08
+ $X=0.8660 $Y=0.1620 $X2=0.8910 $Y2=0.1665
r42 20 26 1.38478 $w=1.70909e-08 $l=1.1e-08 $layer=M1 $thickness=3.6e-08
+ $X=0.8480 $Y=0.1620 $X2=0.8370 $Y2=0.1620
r43 20 37 4.19742 $w=1.3e-08 $l=1.8e-08 $layer=M1 $thickness=3.6e-08 $X=0.8480
+ $Y=0.1620 $X2=0.8660 $Y2=0.1620
r44 36 38 4.4015 $w=1.35e-08 $l=2.78927e-08 $layer=M1 $thickness=3.6e-08
+ $X=0.7560 $Y=0.1620 $X2=0.7290 $Y2=0.1690
r45 35 36 6.29612 $w=1.3e-08 $l=2.7e-08 $layer=M1 $thickness=3.6e-08 $X=0.7830
+ $Y=0.1620 $X2=0.7560 $Y2=0.1620
r46 18 26 5.11582 $w=1.46667e-08 $l=2.7e-08 $layer=M1 $thickness=3.6e-08
+ $X=0.8100 $Y=0.1620 $X2=0.8370 $Y2=0.1620
r47 18 35 6.29612 $w=1.3e-08 $l=2.7e-08 $layer=M1 $thickness=3.6e-08 $X=0.8100
+ $Y=0.1620 $X2=0.7830 $Y2=0.1620
r48 26 34 4.88263 $w=1.47308e-08 $l=2.6e-08 $layer=M1 $thickness=3.6e-08
+ $X=0.8370 $Y=0.1620 $X2=0.8370 $Y2=0.1360
r49 19 34 4.19742 $w=1.3e-08 $l=1.8e-08 $layer=M1 $thickness=3.6e-08 $X=0.8370
+ $Y=0.1180 $X2=0.8370 $Y2=0.1360
r50 11 1 2.92627 $w=1.245e-07 $l=0 $layer=LIG $thickness=5.2e-08 $X=0.8370
+ $Y=0.1350 $X2=0.8370 $Y2=0.1350
r51 1 34 19.3796 $w=1.8e-08 $l=1.8e-08 $layer=V0LIG $X=0.8370 $Y=0.1350
+ $X2=0.8370 $Y2=0.1360
.ends

.subckt PM_DFFHQNx1_ASAP7_75t_R%PD1 VSS 7 10 5 4 1
c1 1 VSS 0.010626f
c2 4 VSS 0.00319064f
c3 5 VSS 0.00185356f
r1 10 9 0.0308642 $w=8.1e-08 $l=2.5e-09 $layer=N_src_drn $thickness=1e-09
+ $X=0.3950 $Y=0.0675 $X2=0.3925 $Y2=0.0675
r2 8 9 0.0555556 $w=8.1e-08 $l=4.5e-09 $layer=N_src_drn $thickness=1e-09
+ $X=0.3880 $Y=0.0675 $X2=0.3925 $Y2=0.0675
r3 5 8 0.123457 $w=8.1e-08 $l=1e-08 $layer=N_src_drn $thickness=1e-09 $X=0.3780
+ $Y=0.0675 $X2=0.3880 $Y2=0.0675
r4 4 1 0.154321 $w=8.1e-08 $l=1.25e-08 $layer=N_src_drn $thickness=1e-09
+ $X=0.3095 $Y=0.0675 $X2=0.3220 $Y2=0.0675
r5 7 4 0.0308642 $w=8.1e-08 $l=2.5e-09 $layer=N_src_drn $thickness=1e-09
+ $X=0.3070 $Y=0.0675 $X2=0.3095 $Y2=0.0675
r6 1 5 1e-05
.ends

.subckt PM_DFFHQNx1_ASAP7_75t_R%D VSS 19 3 5 6 7 9 1 4 8
c1 1 VSS 0.010784f
c2 3 VSS 0.0836285f
c3 4 VSS 0.00377208f
c4 5 VSS 0.0034238f
c5 6 VSS 0.00164691f
c6 7 VSS 0.00744815f
c7 8 VSS 0.00111497f
c8 9 VSS 0.00733033f
r1 9 21 3.48349 $w=1.525e-08 $l=2e-08 $layer=M1 $thickness=3.6e-08 $X=0.2430
+ $Y=0.2340 $X2=0.2430 $Y2=0.2140
r2 7 18 5.17411 $w=1.46514e-08 $l=2.72e-08 $layer=M1 $thickness=3.6e-08
+ $X=0.2430 $Y=0.0360 $X2=0.2430 $Y2=0.0632
r3 5 8 7.7975 $w=1.41688e-08 $l=3.85e-08 $layer=M1 $thickness=3.6e-08 $X=0.2430
+ $Y=0.1735 $X2=0.2430 $Y2=0.1350
r4 5 21 9.44419 $w=1.3e-08 $l=4.05e-08 $layer=M1 $thickness=3.6e-08 $X=0.2430
+ $Y=0.1735 $X2=0.2430 $Y2=0.2140
r5 19 20 2.85657 $w=1.3e-08 $l=1.22e-08 $layer=M1 $thickness=3.6e-08 $X=0.2430
+ $Y=0.0820 $X2=0.2430 $Y2=0.0942
r6 19 18 4.37231 $w=1.3e-08 $l=1.88e-08 $layer=M1 $thickness=3.6e-08 $X=0.2430
+ $Y=0.0820 $X2=0.2430 $Y2=0.0632
r7 4 8 3.2503 $w=1.53684e-08 $l=1.9e-08 $layer=M1 $thickness=3.6e-08 $X=0.2430
+ $Y=0.1160 $X2=0.2430 $Y2=0.1350
r8 4 20 5.07188 $w=1.3e-08 $l=2.18e-08 $layer=M1 $thickness=3.6e-08 $X=0.2430
+ $Y=0.1160 $X2=0.2430 $Y2=0.0942
r9 16 17 2.2153 $w=1.3e-08 $l=9.5e-09 $layer=M1 $thickness=3.6e-08 $X=0.2715
+ $Y=0.1350 $X2=0.2810 $Y2=0.1350
r10 6 16 2.3319 $w=1.3e-08 $l=1e-08 $layer=M1 $thickness=3.6e-08 $X=0.2615
+ $Y=0.1350 $X2=0.2715 $Y2=0.1350
r11 6 8 3.1337 $w=1.54324e-08 $l=1.85e-08 $layer=M1 $thickness=3.6e-08
+ $X=0.2615 $Y=0.1350 $X2=0.2430 $Y2=0.1350
r12 14 17 19.3796 $w=1.8e-08 $l=1.8e-08 $layer=V0LIG $X=0.2770 $Y=0.1350
+ $X2=0.2810 $Y2=0.1350
r13 12 14 4.43042 $w=1.53e-08 $l=7.5e-09 $layer=LIG $thickness=4.8e-08
+ $X=0.2845 $Y=0.1350 $X2=0.2770 $Y2=0.1350
r14 1 11 2.6116 $w=2.2e-08 $l=1e-08 $layer=LIG $thickness=4.8e-08 $X=0.2885
+ $Y=0.1350 $X2=0.2985 $Y2=0.1350
r15 1 12 1.86855 $w=1.78125e-08 $l=4e-09 $layer=LIG $thickness=4.8e-08
+ $X=0.2885 $Y=0.1350 $X2=0.2845 $Y2=0.1350
r16 3 11 2.53453 $w=1.32811e-07 $l=1.5e-09 $layer=LIG $thickness=5.23243e-08
+ $X=0.2970 $Y=0.1350 $X2=0.2985 $Y2=0.1350
r17 3 12 1.79147 $w=1.8466e-07 $l=1.25e-08 $layer=LIG $thickness=5.44e-08
+ $X=0.2970 $Y=0.1350 $X2=0.2845 $Y2=0.1350
.ends

.subckt PM_DFFHQNx1_ASAP7_75t_R%CLKN VSS 13 14 15 77 79 22 8 26 7 16 17 1 19 21
+ 20 18 28 23 2 24 3
c1 1 VSS 0.00161774f
c2 2 VSS 4.46263e-20
c3 3 VSS 0.000144963f
c4 7 VSS 0.00748533f
c5 8 VSS 0.00761307f
c6 13 VSS 0.0596085f
c7 14 VSS 0.00439492f
c8 15 VSS 0.0045813f
c9 16 VSS 0.00599169f
c10 17 VSS 0.00591866f
c11 18 VSS 0.00529647f
c12 19 VSS 0.00346919f
c13 20 VSS 0.00461664f
c14 21 VSS 0.00450559f
c15 22 VSS 0.000591849f
c16 23 VSS 0.000584764f
c17 24 VSS 0.00139559f
c18 25 VSS 0.0036545f
c19 26 VSS 0.00153761f
c20 27 VSS 0.00379539f
c21 28 VSS 0.0235666f
r1 79 78 0.0462963 $w=5.4e-08 $l=2.5e-09 $layer=P_src_drn $thickness=1e-09
+ $X=0.0710 $Y=0.2160 $X2=0.0685 $Y2=0.2160
r2 17 78 0.231482 $w=5.4e-08 $l=1.25e-08 $layer=P_src_drn $thickness=1e-09
+ $X=0.0560 $Y=0.2160 $X2=0.0685 $Y2=0.2160
r3 77 76 0.0462963 $w=5.4e-08 $l=2.5e-09 $layer=N_src_drn $thickness=1e-09
+ $X=0.0710 $Y=0.0540 $X2=0.0685 $Y2=0.0540
r4 16 76 0.231482 $w=5.4e-08 $l=1.25e-08 $layer=N_src_drn $thickness=1e-09
+ $X=0.0560 $Y=0.0540 $X2=0.0685 $Y2=0.0540
r5 8 74 19.3796 $w=1.8e-08 $l=1.8e-08 $layer=V0LISD $X=0.0540 $Y=0.2160
+ $X2=0.0550 $Y2=0.2340
r6 7 71 19.3796 $w=1.8e-08 $l=1.8e-08 $layer=V0LISD $X=0.0540 $Y=0.0540
+ $X2=0.0550 $Y2=0.0360
r7 73 74 2.09871 $w=1.3e-08 $l=9e-09 $layer=M1 $thickness=3.6e-08 $X=0.0460
+ $Y=0.2340 $X2=0.0550 $Y2=0.2340
r8 21 73 2.3319 $w=1.3e-08 $l=1e-08 $layer=M1 $thickness=3.6e-08 $X=0.0360
+ $Y=0.2340 $X2=0.0460 $Y2=0.2340
r9 21 27 2.5483 $w=1.55e-08 $l=1.8e-08 $layer=M1 $thickness=3.6e-08 $X=0.0360
+ $Y=0.2340 $X2=0.0180 $Y2=0.2340
r10 70 71 2.09871 $w=1.3e-08 $l=9e-09 $layer=M1 $thickness=3.6e-08 $X=0.0460
+ $Y=0.0360 $X2=0.0550 $Y2=0.0360
r11 20 70 2.3319 $w=1.3e-08 $l=1e-08 $layer=M1 $thickness=3.6e-08 $X=0.0360
+ $Y=0.0360 $X2=0.0460 $Y2=0.0360
r12 20 25 2.5483 $w=1.55e-08 $l=1.8e-08 $layer=M1 $thickness=3.6e-08 $X=0.0360
+ $Y=0.0360 $X2=0.0180 $Y2=0.0360
r13 27 63 3.36447 $w=1.71023e-08 $l=2.15e-08 $layer=M1 $thickness=3.6e-08
+ $X=0.0180 $Y=0.2340 $X2=0.0180 $Y2=0.2125
r14 25 61 3.36447 $w=1.71023e-08 $l=2.15e-08 $layer=M1 $thickness=3.6e-08
+ $X=0.0180 $Y=0.0360 $X2=0.0180 $Y2=0.0575
r15 3 58 19.3796 $w=1.8e-08 $l=1.8e-08 $layer=V0LIG $X=0.6750 $Y=0.1350
+ $X2=0.6750 $Y2=0.1440
r16 15 3 2.92627 $w=1.245e-07 $l=0 $layer=LIG $thickness=5.2e-08 $X=0.6750
+ $Y=0.1350 $X2=0.6750 $Y2=0.1350
r17 2 23 19.3796 $w=1.8e-08 $l=1.8e-08 $layer=V0LIG $X=0.4050 $Y=0.1350
+ $X2=0.4050 $Y2=0.1350
r18 14 2 2.92627 $w=1.245e-07 $l=0 $layer=LIG $thickness=5.2e-08 $X=0.4050
+ $Y=0.1350 $X2=0.4050 $Y2=0.1350
r19 62 63 7.11229 $w=1.3e-08 $l=3.05e-08 $layer=M1 $thickness=3.6e-08 $X=0.0180
+ $Y=0.1820 $X2=0.0180 $Y2=0.2125
r20 19 26 0.998523 $w=1.74118e-08 $l=1.01119e-08 $layer=M1 $thickness=3.6e-08
+ $X=0.0180 $Y=0.1630 $X2=0.0165 $Y2=0.1530
r21 19 62 4.43061 $w=1.3e-08 $l=1.9e-08 $layer=M1 $thickness=3.6e-08 $X=0.0180
+ $Y=0.1630 $X2=0.0180 $Y2=0.1820
r22 60 61 7.11229 $w=1.3e-08 $l=3.05e-08 $layer=M1 $thickness=3.6e-08 $X=0.0180
+ $Y=0.0880 $X2=0.0180 $Y2=0.0575
r23 18 26 5.19594 $w=1.44151e-08 $l=2.80401e-08 $layer=M1 $thickness=3.6e-08
+ $X=0.0180 $Y=0.1250 $X2=0.0165 $Y2=0.1530
r24 18 60 8.62802 $w=1.3e-08 $l=3.7e-08 $layer=M1 $thickness=3.6e-08 $X=0.0180
+ $Y=0.1250 $X2=0.0180 $Y2=0.0880
r25 24 58 7.11229 $w=1.3e-08 $l=3.05e-08 $layer=M1 $thickness=3.6e-08 $X=0.6750
+ $Y=0.1135 $X2=0.6750 $Y2=0.1440
r26 23 56 4.19742 $w=1.3e-08 $l=1.8e-08 $layer=M1 $thickness=3.6e-08 $X=0.4050
+ $Y=0.1350 $X2=0.4050 $Y2=0.1530
r27 52 53 1.90199 $w=1.38333e-08 $l=9e-09 $layer=M1 $thickness=3.6e-08
+ $X=0.0255 $Y=0.1530 $X2=0.0345 $Y2=0.1530
r28 26 52 0.9184 $w=1.8e-08 $l=9e-09 $layer=M1 $thickness=3.6e-08 $X=0.0165
+ $Y=0.1530 $X2=0.0255 $Y2=0.1530
r29 50 58 19.5347 $w=1.8e-08 $l=1.8e-08 $layer=V1 $X=0.6750 $Y=0.1530
+ $X2=0.6750 $Y2=0.1440
r30 49 50 18.3054 $w=1.3e-08 $l=7.85e-08 $layer=M2 $thickness=3.6e-08 $X=0.5965
+ $Y=0.1530 $X2=0.6750 $Y2=0.1530
r31 48 49 29.3819 $w=1.3e-08 $l=1.26e-07 $layer=M2 $thickness=3.6e-08 $X=0.4705
+ $Y=0.1530 $X2=0.5965 $Y2=0.1530
r32 47 48 15.2739 $w=1.3e-08 $l=6.55e-08 $layer=M2 $thickness=3.6e-08 $X=0.4050
+ $Y=0.1530 $X2=0.4705 $Y2=0.1530
r33 47 56 19.5347 $w=1.8e-08 $l=1.8e-08 $layer=V1 $X=0.4050 $Y=0.1530
+ $X2=0.4050 $Y2=0.1530
r34 46 47 27.8662 $w=1.3e-08 $l=1.195e-07 $layer=M2 $thickness=3.6e-08
+ $X=0.2855 $Y=0.1530 $X2=0.4050 $Y2=0.1530
r35 45 46 27.5164 $w=1.3e-08 $l=1.18e-07 $layer=M2 $thickness=3.6e-08 $X=0.1675
+ $Y=0.1530 $X2=0.2855 $Y2=0.1530